data_str_m1_o1_o1_f0_pcu.sym.9
_audit_creation_date              2012-12-10T18:00:44-0500
_audit_creation_method            fapswitch 2.2
_symmetry_space_group_name_H-M    P1
_symmetry_Int_Tables_number       1
_space_group_crystal_system       triclinic
_cell_length_a                    25.93211
_cell_length_b                    25.974091
_cell_length_c                    25.898101
_cell_angle_alpha                 90.193124
_cell_angle_beta                  90.064521
_cell_angle_gamma                 89.799577
_cell_volume                      17443.785567

loop_
_atom_site_label
_atom_site_type_symbol
_atom_type_description
_atom_site_fract_x
_atom_site_fract_y
_atom_site_fract_z
_atom_type_partial_charge
C1    C     C_R   0.390085 0.250106 0.249973 0.542635
C2    C     C_R   0.609995 0.249853 0.250169 0.535299
C3    C     C_R   0.972658 0.749119 0.203095 0.113788
C4    C     C_R   0.026956 0.797365 0.755367 0.104690
C5    C     C_R   0.973288 0.203374 0.240259 0.101386
C6    C     C_R   0.026656 0.748122 0.202817 0.100668
C7    C     C_R   0.972942 0.294450 0.764330 0.100578
C8    C     C_R   0.749171 0.702528 0.026738 0.118120
C9    C     C_R   0.202082 0.247626 0.973018 0.111463
C10   C     C_R   0.768339 0.206917 0.027044 0.112039
C11   C     C_R   0.295913 0.739920 0.972657 0.109721
C12   C     C_R   0.202085 0.248233 0.026949 0.120396
C13   C     C_R   0.249603 0.749673 0.390026 0.531107
C14   C     C_R   0.748845 0.702738 0.972794 0.124546
C15   C     C_R   0.295673 0.738071 0.026695 0.101421
C16   C     C_R   0.770503 0.207767 0.972964 0.099807
C17   C     C_R   0.204018 0.761594 0.972768 0.108938
C18   C     C_R   0.729327 0.293058 0.027409 0.118444
C19   C     C_R   0.296749 0.247570 0.972905 0.119861
C20   C     C_R   0.750132 0.796991 0.027599 0.123212
C21   C     C_R   0.729556 0.293125 0.973124 0.098338
C22   C     C_R   0.204349 0.763084 0.026854 0.098538
C23   C     C_R   0.749193 0.797335 0.973520 0.101381
C24   C     C_R   0.749545 0.249494 0.609972 0.536528
C25   C     C_R   0.296844 0.247413 0.026866 0.102230
C26   C     C_R   0.703493 0.473502 0.742578 0.121900
C27   C     C_R   0.296239 0.527115 0.244730 0.120582
C28   C     C_R   0.792884 0.472459 0.268195 0.133506
C29   C     C_R   0.295579 0.526280 0.739814 0.122579
C30   C     C_R   0.296355 0.473340 0.241401 0.093625
C31   C     C_R   0.702997 0.527306 0.745793 0.091938
C32   C     C_R   0.296163 0.472638 0.744260 0.103569
C33   C     C_R   0.793761 0.526434 0.267572 0.092544
C34   C     C_R   0.472947 0.243105 0.296932 0.122145
C35   C     C_R   0.609985 0.750343 0.250244 0.505858
C36   C     C_R   0.528596 0.704846 0.759772 0.126465
C37   C     C_R   0.473114 0.722497 0.212052 0.123759
C38   C     C_R   0.526960 0.209050 0.726228 0.121635
C39   C     C_R   0.474707 0.702949 0.755721 0.091368
C40   C     C_R   0.527028 0.242961 0.297142 0.091080
C41   C     C_R   0.472977 0.209514 0.725249 0.122740
C42   C     C_R   0.527024 0.722725 0.212236 0.125792
C43   C     C_R   0.241322 0.702808 0.527120 0.124165
C44   C     C_R   0.705085 0.236824 0.472077 0.125367
C45   C     C_R   0.729211 0.791639 0.527419 0.132034
C46   C     C_R   0.389920 0.249821 0.749898 0.506026
C47   C     C_R   0.243376 0.297666 0.472982 0.121370
C48   C     C_R   0.703570 0.239136 0.526212 0.093682
C49   C     C_R   0.242266 0.702355 0.472907 0.092776
C50   C     C_R   0.242976 0.297545 0.527199 0.096657
C51   C     C_R   0.729437 0.792037 0.473296 0.101535
C52   C     C_R   0.249317 0.553748 0.251012 0.012446
C53   C     C_R   0.750693 0.446412 0.747100 0.014865
C54   C     C_R   0.248870 0.553671 0.745891 0.004834
C55   C     C_R   0.749074 0.446129 0.250029 0.021571
C56   C     C_R   0.749982 0.554006 0.750266 0.005517
C57   C     C_R   0.750318 0.749583 0.610070 0.528007
C58   C     C_R   0.250294 0.446104 0.250311 0.017286
C59   C     C_R   0.750534 0.553734 0.248942 0.022071
C60   C     C_R   0.249168 0.446037 0.749610 -0.010063
C61   C     C_R   0.554059 0.751400 0.750355 0.020063
C62   C     C_R   0.446265 0.250734 0.250080 0.018096
C63   C     C_R   0.553714 0.249682 0.750631 -0.009179
C64   C     C_R   0.445988 0.750302 0.250183 -0.007482
C65   C     C_R   0.553940 0.249571 0.250365 0.012328
C66   C     C_R   0.446387 0.749378 0.751050 0.009930
C67   C     C_R   0.553783 0.750563 0.250445 -0.005008
C68   C     C_R   0.250039 0.250489 0.389934 0.541092
C69   C     C_R   0.445940 0.249861 0.749826 -0.006598
C70   C     C_R   0.750702 0.250165 0.446145 0.020905
C71   C     C_R   0.250437 0.749362 0.553858 0.020731
C72   C     C_R   0.251560 0.251089 0.445966 0.018000
C73   C     C_R   0.750349 0.749335 0.553959 0.014052
C74   C     C_R   0.248918 0.749170 0.446150 0.009138
C75   C     C_R   0.749499 0.249114 0.553827 0.014018
C76   C     C_R   0.750717 0.749874 0.446169 0.002892
C77   C     C_R   0.249034 0.250534 0.553717 0.013652
C78   C     C_R   0.749963 0.053783 0.250421 -0.000297
C79   C     C_R   0.249770 0.390005 0.750043 0.504154
C80   C     C_R   0.249328 0.946113 0.750946 -0.001828
C81   C     C_R   0.249877 0.053713 0.250079 0.006031
C82   C     C_R   0.750327 0.946263 0.749965 0.008530
C83   C     C_R   0.247008 0.053674 0.751263 0.016527
C84   C     C_R   0.749648 0.946196 0.249249 0.022180
C85   C     C_R   0.750797 0.053960 0.750314 0.026041
C86   C     C_R   0.250645 0.946074 0.249254 0.027907
C87   C     C_R   0.053800 0.749383 0.250166 0.002884
C88   C     C_R   0.946205 0.249021 0.750965 -0.004264
C89   C     C_R   0.053647 0.750111 0.750680 0.004374
C90   C     C_R   0.750172 0.609935 0.249810 0.535851
C91   C     C_R   0.946247 0.249797 0.249863 0.012269
C92   C     C_R   0.053777 0.248523 0.753542 0.016783
C93   C     C_R   0.946172 0.750231 0.250483 0.023331
C94   C     C_R   0.053988 0.249563 0.248656 0.023166
C95   C     C_R   0.945967 0.750971 0.749638 0.026452
C96   C     C_R   0.749549 0.750104 0.946242 -0.005848
C97   C     C_R   0.249542 0.248733 0.053831 -0.009168
C98   C     C_R   0.750068 0.250385 0.946156 0.013004
C99   C     C_R   0.249952 0.750170 0.053809 0.009786
C100  C     C_R   0.249414 0.248667 0.946099 0.006741
C101  C     C_R   0.249639 0.609925 0.250388 0.530083
C102  C     C_R   0.749904 0.749656 0.053910 0.005537
C103  C     C_R   0.249904 0.750577 0.946034 0.027280
C104  C     C_R   0.748823 0.249871 0.053906 0.033431
C105  C     C_3   0.158772 0.428781 0.328821 -0.291380
C106  C     C_3   0.868434 0.554974 0.804905 -0.262349
C107  C     C_3   0.129188 0.452487 0.805271 -0.268520
C108  C     C_3   0.680328 0.561512 0.147614 -0.308507
C109  C     C_3   0.859545 0.433278 0.691557 -0.318361
C110  C     C_3   0.122940 0.558932 0.220296 -0.296650
C111  C     C_3   0.620349 0.439660 0.246832 -0.305723
C112  C     C_R   0.610047 0.751264 0.749085 0.532112
C113  C     C_R   0.750415 0.390152 0.749224 0.539146
C114  C     C_3   0.140169 0.558828 0.685858 -0.301984
C115  C     C_3   0.441926 0.873508 0.789328 -0.271161
C116  C     C_3   0.558512 0.221005 0.123621 -0.279252
C117  C     C_3   0.437009 0.319124 0.856778 -0.294153
C118  C     C_3   0.558316 0.862021 0.313684 -0.295629
C119  C     C_3   0.431568 0.324660 0.152362 -0.326456
C120  C     C_3   0.555573 0.849090 0.671624 -0.332100
C121  C     C_3   0.440479 0.780355 0.376376 -0.284061
C122  C     C_3   0.554472 0.378098 0.781933 -0.283568
C123  C     C_3   0.876547 0.224987 0.558671 -0.276282
C124  C     C_R   0.749904 0.610008 0.750198 0.531943
C125  C     C_3   0.209546 0.871425 0.445568 -0.264919
C126  C     C_3   0.209684 0.127387 0.544593 -0.273428
C127  C     C_3   0.852632 0.673892 0.440348 -0.299319
C128  C     C_3   0.324303 0.848170 0.567271 -0.319692
C129  C     C_3   0.840684 0.336861 0.441949 -0.332267
C130  C     C_3   0.761379 0.619776 0.557139 -0.280026
C131  C     C_3   0.331984 0.155638 0.437311 -0.324082
C132  C     C_3   0.633738 0.933391 0.196125 -0.266228
C133  C     C_3   0.214320 0.069557 0.869268 -0.295078
C134  C     C_3   0.329652 0.928394 0.340329 -0.294100
C135  C     C_R   0.250526 0.390019 0.249565 0.534617
C136  C     C_3   0.780592 0.057779 0.624063 -0.276168
C137  C     C_3   0.315332 0.939836 0.864795 -0.292616
C138  C     C_3   0.628245 0.063208 0.201896 -0.274877
C139  C     C_3   0.670969 0.938345 0.653855 -0.321527
C140  C     C_3   0.218290 0.055139 0.376707 -0.317268
C141  C     C_3   0.717864 0.054532 0.875898 -0.276888
C142  C     C_3   0.272641 0.929583 0.125016 -0.272590
C143  C     C_3   0.166184 0.062805 0.653667 -0.264521
C144  C     C_3   0.862709 0.930774 0.200853 -0.297677
C145  C     C_3   0.273851 0.061502 0.121605 -0.281427
C146  C     C_R   0.749370 0.389998 0.249622 0.532339
C147  C     C_3   0.828891 0.933364 0.845865 -0.319560
C148  C     C_3   0.870276 0.058724 0.303163 -0.297765
C149  C     C_3   0.183601 0.936195 0.636936 -0.280528
C150  C     C_3   0.931882 0.795687 0.369745 -0.266266
C151  C     C_3   0.070138 0.129845 0.781175 -0.293212
C152  C     C_3   0.929984 0.653282 0.677871 -0.293184
C153  C     C_3   0.054309 0.370831 0.206536 -0.263380
C154  C     C_3   0.940059 0.138370 0.679797 -0.293494
C155  C     C_3   0.062457 0.792799 0.374036 -0.274914
C156  C     C_3   0.943577 0.348137 0.328824 -0.327292
C157  C     C_R   0.249402 0.609893 0.748784 0.529744
C158  C     C_3   0.053683 0.627130 0.793523 -0.315872
C159  C     C_3   0.058209 0.123836 0.280140 -0.273323
C160  C     C_3   0.929554 0.873998 0.721295 -0.269532
C161  C     C_3   0.063125 0.340916 0.840127 -0.273848
C162  C     C_3   0.931850 0.802474 0.138663 -0.297992
C163  C     C_3   0.061380 0.876867 0.719093 -0.282608
C164  C     C_3   0.931969 0.151955 0.174386 -0.315566
C165  C     C_3   0.059376 0.700372 0.128278 -0.301074
C166  C     C_3   0.936447 0.358221 0.824276 -0.270609
C167  C     C_3   0.790432 0.626102 0.063254 -0.266284
C168  C     C_R   0.890049 0.749727 0.250395 0.554720
C169  C     C_3   0.141246 0.192599 0.928157 -0.294834
C170  C     C_3   0.750197 0.121976 0.059593 -0.285405
C171  C     C_3   0.377121 0.772166 0.940942 -0.275933
C172  C     C_3   0.124804 0.292127 0.056835 -0.267893
C173  C     C_3   0.788236 0.625888 0.934593 -0.263513
C174  C     C_3   0.344402 0.669061 0.065780 -0.319819
C175  C     C_3   0.847778 0.172798 0.934410 -0.316203
C176  C     C_3   0.122156 0.730856 0.940807 -0.275634
C177  C     C_3   0.660721 0.332455 0.078128 -0.301524
C178  C     C_3   0.368254 0.201787 0.931618 -0.263728
C179  C     C_R   0.109913 0.249620 0.750781 0.540697
C180  C     C_3   0.804701 0.859215 0.070305 -0.298006
C181  C     C_3   0.657312 0.330578 0.927079 -0.302368
C182  C     C_3   0.156691 0.831212 0.069290 -0.318541
C183  C     C_3   0.702467 0.872443 0.941446 -0.300036
C184  C     C_3   0.369878 0.198239 0.060366 -0.283799
C185  C     C_3   0.641765 0.436478 0.682353 -0.274447
C186  C     C_3   0.373287 0.555398 0.288187 -0.281098
C187  C     C_3   0.827838 0.418727 0.336700 -0.308732
C188  C     C_3   0.349225 0.557687 0.670623 -0.286180
C189  C     C_3   0.348941 0.438077 0.173094 -0.326531
C190  C     C_R   0.250033 0.749925 0.109991 0.514905
C191  C     C_3   0.629243 0.564238 0.699384 -0.270193
C192  C     C_3   0.369441 0.433818 0.698309 -0.274145
C193  C     C_3   0.837519 0.564621 0.340421 -0.308896
C194  C     C_3   0.429385 0.275462 0.374179 -0.274191
C195  C     C_3   0.570611 0.659736 0.829445 -0.301955
C196  C     C_3   0.431111 0.643404 0.187196 -0.299281
C197  C     C_3   0.574324 0.172289 0.654477 -0.291820
C198  C     C_3   0.453315 0.626863 0.707614 -0.303271
C199  C     C_3   0.560497 0.278679 0.377570 -0.275080
C200  C     C_3   0.425967 0.177853 0.650692 -0.292778
C201  C     C_R   0.750049 0.250119 0.889983 0.512699
C202  C     C_3   0.573644 0.645211 0.188418 -0.287282
C203  C     C_3   0.264524 0.625063 0.575711 -0.283063
C204  C     C_3   0.664469 0.164573 0.429992 -0.302338
C205  C     C_3   0.659509 0.822993 0.582229 -0.306114
C206  C     C_3   0.276741 0.374242 0.430317 -0.274426
C207  C     C_3   0.621452 0.270089 0.558391 -0.309438
C208  C     C_3   0.275815 0.621735 0.438614 -0.290374
C209  C     C_3   0.276395 0.378149 0.562474 -0.283398
C210  C     C_3   0.652309 0.828712 0.436418 -0.307592
C211  C     C_R   0.109925 0.749957 0.750040 0.508827
C212  C     C_R   0.249770 0.250040 0.609953 0.531459
C213  C     C_R   0.890047 0.250109 0.250211 0.511152
C214  C     C_R   0.749941 0.750081 0.890062 0.505262
C215  C     C_R   0.249882 0.249740 0.109963 0.498162
C216  C     C_R   0.890076 0.249748 0.750138 0.512685
C217  C     C_R   0.109941 0.749897 0.250040 0.507302
C218  C     C_R   0.249835 0.249791 0.890025 0.538702
C219  C     C_R   0.749793 0.749705 0.109998 0.525404
C220  C     C_R   0.110043 0.249652 0.249455 0.563057
C221  C     C_R   0.889928 0.750767 0.750569 0.558980
C222  C     C_R   0.749959 0.249818 0.110032 0.561291
C223  C     C_R   0.750280 0.749882 0.389988 0.504024
C224  C     C_R   0.249880 0.750243 0.889951 0.568215
C225  C     C_R   0.749843 0.890076 0.749865 0.512717
C226  C     C_R   0.250126 0.109925 0.250125 0.509380
C227  C     C_R   0.750023 0.109931 0.250069 0.510059
C228  C     C_R   0.249838 0.890041 0.750290 0.512661
C229  C     C_R   0.249362 0.109879 0.750325 0.545814
C230  C     C_R   0.749642 0.890064 0.250139 0.552418
C231  C     C_R   0.249519 0.889997 0.249363 0.562538
C232  C     C_R   0.750428 0.110005 0.750308 0.560946
C233  C     C_R   0.203747 0.472536 0.260157 0.123663
C234  C     C_R   0.609959 0.249978 0.750090 0.500620
C235  C     C_R   0.797289 0.527255 0.751672 0.113559
C236  C     C_R   0.201890 0.473339 0.751220 0.120932
C237  C     C_R   0.707477 0.527367 0.229124 0.127915
C238  C     C_R   0.797777 0.473500 0.748761 0.091203
C239  C     C_R   0.202559 0.526644 0.257435 0.090409
C240  C     C_R   0.705807 0.473329 0.231321 0.095181
C241  C     C_R   0.201861 0.526927 0.747722 0.112168
C242  C     C_R   0.472105 0.796699 0.745992 0.119742
C243  C     C_R   0.527363 0.257459 0.203715 0.119244
C244  C     C_R   0.472484 0.289555 0.775669 0.119726
C245  C     C_R   0.389936 0.749933 0.249976 0.502127
C246  C     C_R   0.526686 0.778455 0.288647 0.121097
C247  C     C_R   0.473439 0.259471 0.203727 0.090999
C248  C     C_R   0.525953 0.797318 0.742064 0.095157
C249  C     C_R   0.472563 0.777939 0.288811 0.123795
C250  C     C_R   0.526581 0.289471 0.776206 0.123722
C251  C     C_R   0.795763 0.259695 0.527818 0.120101
C252  C     C_R   0.255509 0.795812 0.473019 0.114903
C253  C     C_R   0.256508 0.204230 0.526342 0.114020
C254  C     C_R   0.772472 0.707810 0.472919 0.122945
C255  C     C_R   0.258984 0.795589 0.526834 0.089727
C256  C     C_R   0.750747 0.250683 0.390015 0.533172
C257  C     C_R   0.795784 0.262982 0.473871 0.094902
C258  C     C_R   0.771589 0.707167 0.527000 0.113164
C259  C     C_R   0.261470 0.205148 0.472664 0.089091
C260  C     C_R   0.702487 0.973340 0.246545 0.112993
C261  C     C_R   0.256803 0.027259 0.797676 0.115014
C262  C     C_R   0.260612 0.972475 0.295624 0.115660
C263  C     C_R   0.743263 0.027370 0.703635 0.111492
C264  C     C_R   0.257770 0.973282 0.797724 0.098647
C265  C     C_R   0.702574 0.027254 0.247916 0.101981
C266  C     C_R   0.740672 0.973497 0.703749 0.100264
C267  C     C_R   0.249946 0.749759 0.609967 0.545035
C268  C     C_R   0.257447 0.026478 0.296730 0.101976
C269  C     C_R   0.758309 0.027120 0.796824 0.108810
C270  C     C_R   0.241866 0.973005 0.202902 0.111853
C271  C     C_R   0.235236 0.026360 0.705586 0.111767
C272  C     C_R   0.796915 0.972545 0.252136 0.114688
C273  C     C_R   0.242031 0.027035 0.203175 0.104993
C274  C     C_R   0.760937 0.973209 0.796185 0.100030
C275  C     C_R   0.797178 0.026488 0.253189 0.100223
C276  C     C_R   0.238779 0.972783 0.704767 0.101090
C277  C     C_R   0.973145 0.750601 0.297811 0.112754
C278  C     C_R   0.390122 0.749330 0.750618 0.533670
C279  C     C_R   0.027381 0.202673 0.741671 0.115771
C280  C     C_R   0.972343 0.704078 0.743564 0.115765
C281  C     C_R   0.027235 0.296345 0.254015 0.108330
C282  C     C_R   0.973400 0.202733 0.740467 0.097948
C283  C     C_R   0.027158 0.749713 0.297680 0.103453
C284  C     C_R   0.973463 0.296140 0.258075 0.102962
C285  C     C_R   0.026291 0.703165 0.746996 0.101635
C286  C     C_R   0.027306 0.202964 0.242253 0.108964
C287  C     C_R   0.972871 0.797682 0.755518 0.111609
C288  C     C_R   0.026508 0.293472 0.767828 0.114179
H1    H     H_    0.124341 0.461067 0.264966 0.266336
H2    H     H_    0.149735 0.427880 0.833646 0.146050
H3    H     H_    0.598641 0.956675 0.188303 0.107385
H4    H     H_    0.288787 0.040168 0.870548 0.262656
H5    H     H_    0.222317 0.093814 0.903730 0.128590
H6    H     H_    0.193197 0.034573 0.881688 0.142828
H7    H     H_    0.189792 0.092125 0.842311 0.130663
H8    H     H_    0.266161 0.961130 0.375168 0.267965
H9    H     H_    0.337598 0.904594 0.374993 0.135122
H10   H     H_    0.355263 0.962611 0.341160 0.142679
H11   H     H_    0.338533 0.904794 0.305630 0.149660
H12   H     H_    0.702907 0.044915 0.636836 0.258941
H13   H     H_    0.088348 0.440653 0.802453 0.131224
H14   H     H_    0.772802 0.084290 0.591401 0.132547
H15   H     H_    0.789921 0.019022 0.608288 0.148922
H16   H     H_    0.814356 0.072591 0.645904 0.159394
H17   H     H_    0.238741 0.916406 0.851952 0.257347
H18   H     H_    0.317199 0.952489 0.905714 0.122143
H19   H     H_    0.343778 0.962438 0.842193 0.137240
H20   H     H_    0.326323 0.898508 0.862940 0.165032
H21   H     H_    0.652864 0.084674 0.276119 0.247030
H22   H     H_    0.587949 0.049381 0.204967 0.128692
H23   H     H_    0.647474 0.043030 0.169186 0.140617
H24   H     H_    0.129528 0.492914 0.819379 0.156133
H25   H     H_    0.627110 0.105057 0.193288 0.161575
H26   H     H_    0.747859 0.916398 0.647305 0.283351
H27   H     H_    0.661148 0.927106 0.613741 0.143265
H28   H     H_    0.648529 0.973621 0.663470 0.146808
H29   H     H_    0.659955 0.907044 0.680740 0.139985
H30   H     H_    0.283925 0.087018 0.343043 0.253427
H31   H     H_    0.229762 0.061521 0.417504 0.141416
H32   H     H_    0.196083 0.018655 0.374810 0.137304
H33   H     H_    0.192870 0.087230 0.364192 0.167671
H34   H     H_    0.796280 0.044185 0.864888 0.261916
H35   H     H_    0.631656 0.542316 0.207724 0.263857
H36   H     H_    0.724394 0.077787 0.911268 0.128961
H37   H     H_    0.708008 0.014713 0.887831 0.146138
H38   H     H_    0.684848 0.071444 0.854405 0.171890
H39   H     H_    0.199081 0.960712 0.135775 0.262614
H40   H     H_    0.268052 0.888435 0.114463 0.170047
H41   H     H_    0.310091 0.934266 0.145476 0.157175
H42   H     H_    0.273665 0.952453 0.088886 0.111737
H43   H     H_    0.238887 0.039459 0.626708 0.262396
H44   H     H_    0.159817 0.104317 0.646053 0.183928
H45   H     H_    0.143975 0.052404 0.688851 0.135264
H46   H     H_    0.718426 0.580194 0.142783 0.156820
H47   H     H_    0.150633 0.040756 0.620368 0.091363
H48   H     H_    0.873020 0.959317 0.274904 0.265093
H49   H     H_    0.899304 0.908758 0.204308 0.124889
H50   H     H_    0.870014 0.966001 0.177777 0.145156
H51   H     H_    0.834073 0.906204 0.180697 0.136593
H52   H     H_    0.207063 0.085797 0.160155 0.247784
H53   H     H_    0.261916 0.050052 0.082064 0.129275
H54   H     H_    0.308091 0.038203 0.132904 0.144862
H55   H     H_    0.285120 0.102718 0.120921 0.163382
H56   H     H_    0.750783 0.917247 0.852308 0.269760
H57   H     H_    0.650722 0.586197 0.129095 0.123816
H58   H     H_    0.837200 0.917631 0.884806 0.138459
H59   H     H_    0.853347 0.967894 0.839998 0.145395
H60   H     H_    0.838833 0.903678 0.816497 0.148803
H61   H     H_    0.848117 0.084320 0.229519 0.254007
H62   H     H_    0.912107 0.050602 0.298984 0.129951
H63   H     H_    0.854150 0.031996 0.332421 0.142021
H64   H     H_    0.865506 0.098770 0.317501 0.169699
H65   H     H_    0.261771 0.917795 0.649743 0.253093
H66   H     H_    0.179775 0.952528 0.597590 0.126590
H67   H     H_    0.153288 0.953065 0.662236 0.138832
H68   H     H_    0.680713 0.523504 0.127761 0.162726
H69   H     H_    0.177013 0.894059 0.634336 0.157357
H70   H     H_    0.959914 0.720217 0.371049 0.258655
H71   H     H_    0.890741 0.794474 0.381348 0.175516
H72   H     H_    0.937408 0.828858 0.343266 0.155011
H73   H     H_    0.955402 0.801944 0.405031 0.109089
H74   H     H_    0.040276 0.131116 0.706814 0.259628
H75   H     H_    0.094634 0.095963 0.771687 0.124420
H76   H     H_    0.035284 0.116496 0.802084 0.140959
H77   H     H_    0.092726 0.155934 0.806594 0.133182
H78   H     H_    0.959885 0.624660 0.745871 0.268006
H79   H     H_    0.853742 0.420098 0.770911 0.271673
H80   H     H_    0.905951 0.618391 0.672496 0.133276
H81   H     H_    0.965077 0.649571 0.653521 0.141625
H82   H     H_    0.907120 0.687138 0.665031 0.146259
H83   H     H_    0.045094 0.367453 0.285840 0.258965
H84   H     H_    0.080345 0.404490 0.208713 0.140850
H85   H     H_    0.014742 0.384649 0.197407 0.144379
H86   H     H_    0.068053 0.345306 0.174852 0.159780
H87   H     H_    0.916752 0.147496 0.757235 0.257434
H88   H     H_    0.953122 0.097817 0.675953 0.119771
H89   H     H_    0.962404 0.162390 0.652322 0.135503
H90   H     H_    0.900779 0.421884 0.689988 0.138328
H91   H     H_    0.898628 0.140286 0.669058 0.164526
H92   H     H_    0.085115 0.720344 0.345969 0.245984
H93   H     H_    0.049543 0.787517 0.414484 0.128159
H94   H     H_    0.040976 0.825711 0.356888 0.144831
H95   H     H_    0.104141 0.802432 0.374602 0.161861
H96   H     H_    0.914675 0.351452 0.253987 0.286385
H97   H     H_    0.932269 0.388252 0.338202 0.142037
H98   H     H_    0.981032 0.340309 0.348217 0.147029
H99   H     H_    0.914152 0.321073 0.343820 0.138214
H100  H     H_    0.086806 0.654343 0.725283 0.256220
H101  H     H_    0.853869 0.466217 0.664828 0.143502
H102  H     H_    0.057881 0.585313 0.785669 0.145591
H103  H     H_    0.017575 0.632866 0.815950 0.137766
H104  H     H_    0.086704 0.640251 0.817427 0.165017
H105  H     H_    0.044012 0.135833 0.202439 0.260324
H106  H     H_    0.084653 0.090997 0.272405 0.135665
H107  H     H_    0.019519 0.108461 0.289951 0.143124
H108  H     H_    0.073480 0.145864 0.313629 0.168782
H109  H     H_    0.960444 0.866514 0.795364 0.261282
H110  H     H_    0.888546 0.885427 0.725859 0.171892
H111  H     H_    0.933624 0.851677 0.684777 0.157252
H112  H     H_    0.123729 0.405668 0.336682 0.136097
H113  H     H_    0.835548 0.400314 0.678615 0.140557
H114  H     H_    0.952992 0.909554 0.718341 0.110498
H115  H     H_    0.040145 0.372530 0.769260 0.263468
H116  H     H_    0.104728 0.347979 0.846794 0.170401
H117  H     H_    0.052707 0.304510 0.860059 0.137441
H118  H     H_    0.041151 0.373119 0.857934 0.097980
H119  H     H_    0.959460 0.728543 0.126352 0.266112
H120  H     H_    0.910588 0.800349 0.101513 0.124496
H121  H     H_    0.967491 0.825342 0.132716 0.147258
H122  H     H_    0.906846 0.821932 0.167541 0.136577
H123  H     H_    0.085628 0.842329 0.788017 0.248500
H124  H     H_    0.157975 0.586826 0.286998 0.249949
H125  H     H_    0.050050 0.916919 0.729003 0.126058
H126  H     H_    0.037973 0.863791 0.685543 0.144305
H127  H     H_    0.102626 0.876820 0.707642 0.161891
H128  H     H_    0.918301 0.146957 0.253319 0.270217
H129  H     H_    0.917012 0.112587 0.167202 0.135915
H130  H     H_    0.965642 0.158184 0.148683 0.146815
H131  H     H_    0.901211 0.180275 0.164905 0.149106
H132  H     H_    0.084731 0.773254 0.152618 0.252987
H133  H     H_    0.051202 0.705564 0.086546 0.131237
H134  H     H_    0.032771 0.670645 0.143673 0.139036
H135  H     H_    0.085018 0.575401 0.231607 0.136103
H136  H     H_    0.099568 0.686164 0.132550 0.166064
H137  H     H_    0.918099 0.350847 0.745317 0.255887
H138  H     H_    0.952699 0.397156 0.830807 0.125561
H139  H     H_    0.953417 0.331035 0.852733 0.147977
H140  H     H_    0.894254 0.360207 0.831204 0.161740
H141  H     H_    0.717585 0.655055 0.083386 0.236337
H142  H     H_    0.797573 0.623819 0.105474 0.161770
H143  H     H_    0.824619 0.644154 0.044936 0.140743
H144  H     H_    0.786146 0.586348 0.048119 0.135106
H145  H     H_    0.145973 0.272530 0.920832 0.261044
H146  H     H_    0.116257 0.521168 0.201287 0.132692
H147  H     H_    0.167629 0.181018 0.896410 0.122448
H148  H     H_    0.101125 0.192503 0.913141 0.126257
H149  H     H_    0.143963 0.164230 0.960078 0.157604
H150  H     H_    0.822678 0.150507 0.043043 0.260224
H151  H     H_    0.766067 0.091866 0.085535 0.130900
H152  H     H_    0.742469 0.104482 0.021145 0.145627
H153  H     H_    0.713403 0.136252 0.076349 0.168729
H154  H     H_    0.360419 0.695799 0.955927 0.262712
H155  H     H_    0.409125 0.762080 0.914272 0.134094
H156  H     H_    0.393596 0.781407 0.979481 0.150480
H157  H     H_    0.141208 0.585114 0.192002 0.175105
H158  H     H_    0.357042 0.806723 0.925571 0.160441
H159  H     H_    0.154661 0.224097 0.087508 0.249913
H160  H     H_    0.087398 0.284780 0.076249 0.125213
H161  H     H_    0.116694 0.307617 0.017756 0.157512
H162  H     H_    0.146339 0.321365 0.079515 0.158618
H163  H     H_    0.715497 0.655967 0.916052 0.239557
H164  H     H_    0.784145 0.586475 0.950381 0.135461
H165  H     H_    0.823258 0.643988 0.951409 0.137613
H166  H     H_    0.793639 0.622775 0.892211 0.155227
H167  H     H_    0.352745 0.746948 0.082715 0.269047
H168  H     H_    0.671021 0.413672 0.190455 0.247870
H169  H     H_    0.384613 0.659141 0.076430 0.148874
H170  H     H_    0.333304 0.644802 0.032152 0.146648
H171  H     H_    0.318598 0.660514 0.098859 0.145718
H172  H     H_    0.773237 0.153250 0.914372 0.273115
H173  H     H_    0.863663 0.136795 0.917410 0.134112
H174  H     H_    0.869872 0.181882 0.970039 0.144766
H175  H     H_    0.852746 0.204491 0.906152 0.152339
H176  H     H_    0.140282 0.806825 0.956609 0.259963
H177  H     H_    0.090210 0.741623 0.914332 0.134986
H178  H     H_    0.105683 0.721741 0.979283 0.145258
H179  H     H_    0.631987 0.412880 0.278079 0.174811
H180  H     H_    0.141549 0.696033 0.924995 0.169473
H181  H     H_    0.716576 0.371766 0.036898 0.278027
H182  H     H_    0.651900 0.367558 0.101096 0.131205
H183  H     H_    0.658683 0.298887 0.104346 0.169745
H184  H     H_    0.631033 0.328340 0.047563 0.133726
H185  H     H_    0.370176 0.277202 0.959806 0.256039
H186  H     H_    0.379253 0.202495 0.890265 0.175283
H187  H     H_    0.341724 0.168789 0.937723 0.151327
H188  H     H_    0.403832 0.195576 0.954678 0.109729
H189  H     H_    0.732042 0.874317 0.040719 0.264144
H190  H     H_    0.586661 0.423075 0.226248 0.132800
H191  H     H_    0.803239 0.896136 0.091960 0.121082
H192  H     H_    0.828878 0.864538 0.035329 0.144983
H193  H     H_    0.822374 0.829622 0.095608 0.142160
H194  H     H_    0.734035 0.351224 0.918703 0.266645
H195  H     H_    0.643095 0.368053 0.912149 0.140094
H196  H     H_    0.631177 0.317892 0.958388 0.150012
H197  H     H_    0.656161 0.301975 0.895160 0.145658
H198  H     H_    0.147440 0.752898 0.082045 0.267913
H199  H     H_    0.117613 0.840480 0.084185 0.137759
H200  H     H_    0.164824 0.856895 0.036075 0.145227
H201  H     H_    0.608462 0.476932 0.264323 0.138306
H202  H     H_    0.185211 0.838487 0.100460 0.149472
H203  H     H_    0.774617 0.846756 0.915041 0.252655
H204  H     H_    0.708789 0.914223 0.947806 0.130978
H205  H     H_    0.673244 0.858896 0.969669 0.142109
H206  H     H_    0.686864 0.866827 0.901915 0.170832
H207  H     H_    0.347365 0.272065 0.085046 0.249599
H208  H     H_    0.411407 0.201715 0.050786 0.131878
H209  H     H_    0.352478 0.168018 0.035414 0.138149
H210  H     H_    0.366549 0.185508 0.101074 0.159002
H211  H     H_    0.626053 0.460421 0.757699 0.256816
H212  H     H_    0.147325 0.584631 0.761690 0.268942
H213  H     H_    0.633811 0.394851 0.677218 0.171237
H214  H     H_    0.672802 0.447371 0.654868 0.142459
H215  H     H_    0.606148 0.458056 0.672235 0.098771
H216  H     H_    0.365444 0.544648 0.209308 0.254409
H217  H     H_    0.407360 0.580653 0.283456 0.122739
H218  H     H_    0.387012 0.515988 0.297731 0.145630
H219  H     H_    0.349752 0.570541 0.320726 0.162978
H220  H     H_    0.871628 0.461182 0.283989 0.278269
H221  H     H_    0.834527 0.376857 0.331440 0.147542
H222  H     H_    0.788000 0.424474 0.351621 0.146507
H223  H     H_    0.158587 0.463137 0.354527 0.139380
H224  H     H_    0.099682 0.572417 0.682827 0.148053
H225  H     H_    0.855113 0.433868 0.366104 0.109963
H226  H     H_    0.374068 0.540704 0.745768 0.264389
H227  H     H_    0.351693 0.598967 0.660449 0.166933
H228  H     H_    0.316987 0.540711 0.647893 0.124729
H229  H     H_    0.385558 0.538392 0.658585 0.096390
H230  H     H_    0.352856 0.416490 0.250310 0.269059
H231  H     H_    0.389431 0.426906 0.164928 0.130542
H232  H     H_    0.340127 0.473347 0.150510 0.148338
H233  H     H_    0.322901 0.406508 0.160581 0.138162
H234  H     H_    0.652566 0.583636 0.774521 0.255597
H235  H     H_    0.143211 0.521539 0.664876 0.164499
H236  H     H_    0.625927 0.606416 0.693198 0.179771
H237  H     H_    0.589739 0.548025 0.700429 0.121326
H238  H     H_    0.650530 0.547251 0.666159 0.142110
H239  H     H_    0.347275 0.417886 0.774516 0.247980
H240  H     H_    0.407723 0.452689 0.696980 0.125769
H241  H     H_    0.346107 0.446528 0.664606 0.140615
H242  H     H_    0.375506 0.391570 0.695097 0.163854
H243  H     H_    0.849957 0.583287 0.263648 0.269669
H244  H     H_    0.875497 0.580490 0.351992 0.134136
H245  H     H_    0.830252 0.529436 0.363480 0.162924
H246  H     H_    0.165938 0.587529 0.667484 0.125923
H247  H     H_    0.807057 0.593600 0.348695 0.141572
H248  H     H_    0.460219 0.201704 0.364551 0.260999
H249  H     H_    0.388122 0.271240 0.384519 0.166863
H250  H     H_    0.434312 0.312478 0.353291 0.152177
H251  H     H_    0.452161 0.276965 0.410475 0.108551
H252  H     H_    0.543168 0.625557 0.762947 0.271545
H253  H     H_    0.593006 0.694524 0.840230 0.155786
H254  H     H_    0.594633 0.625339 0.837948 0.124822
H255  H     H_    0.535001 0.657984 0.853219 0.149469
H256  H     H_    0.417338 0.715169 0.155243 0.251056
H257  H     H_    0.452050 0.865455 0.710450 0.257290
H258  H     H_    0.398597 0.645417 0.214917 0.168686
H259  H     H_    0.463695 0.621919 0.204818 0.151632
H260  H     H_    0.418241 0.621827 0.152533 0.124510
H261  H     H_    0.580357 0.149904 0.730873 0.260123
H262  H     H_    0.604701 0.202187 0.654864 0.140153
H263  H     H_    0.543465 0.183619 0.627114 0.152610
H264  H     H_    0.591567 0.135507 0.640820 0.135467
H265  H     H_    0.414020 0.652961 0.773003 0.268551
H266  H     H_    0.445079 0.585611 0.713886 0.136184
H267  H     H_    0.492528 0.629326 0.690576 0.133177
H268  H     H_    0.414868 0.906372 0.784489 0.132792
H269  H     H_    0.425649 0.643626 0.679604 0.161414
H270  H     H_    0.586142 0.210860 0.341849 0.250543
H271  H     H_    0.601653 0.290347 0.378435 0.179998
H272  H     H_    0.548505 0.268626 0.417366 0.124236
H273  H     H_    0.537101 0.312125 0.364386 0.139713
H274  H     H_    0.419777 0.150334 0.725475 0.258803
H275  H     H_    0.413857 0.141053 0.632481 0.137755
H276  H     H_    0.455513 0.195986 0.625746 0.140789
H277  H     H_    0.391818 0.203656 0.653096 0.149047
H278  H     H_    0.580295 0.716693 0.152723 0.252624
H279  H     H_    0.480883 0.888803 0.798352 0.148237
H280  H     H_    0.566789 0.617238 0.156722 0.144954
H281  H     H_    0.554356 0.630651 0.223794 0.141862
H282  H     H_    0.615689 0.647801 0.196135 0.161315
H283  H     H_    0.194624 0.638360 0.537811 0.265490
H284  H     H_    0.256784 0.618927 0.617333 0.172067
H285  H     H_    0.303649 0.641892 0.571279 0.151128
H286  H     H_    0.263814 0.586906 0.556230 0.104319
H287  H     H_    0.626328 0.228334 0.458644 0.267923
H288  H     H_    0.630483 0.153971 0.406183 0.126322
H289  H     H_    0.664513 0.140669 0.465514 0.149377
H290  H     H_    0.428304 0.849724 0.822154 0.157391
H291  H     H_    0.699784 0.156208 0.407207 0.157166
H292  H     H_    0.708467 0.869215 0.537927 0.276576
H293  H     H_    0.665740 0.828379 0.624251 0.148151
H294  H     H_    0.645910 0.782954 0.575422 0.149028
H295  H     H_    0.628757 0.849756 0.568979 0.107824
H296  H     H_    0.202566 0.365785 0.460313 0.261985
H297  H     H_    0.272884 0.384949 0.389076 0.168508
H298  H     H_    0.313547 0.352673 0.435354 0.146775
H299  H     H_    0.278579 0.410196 0.453550 0.108848
H300  H     H_    0.661456 0.205907 0.585482 0.243097
H301  H     H_    0.544197 0.298302 0.137427 0.255967
H302  H     H_    0.583546 0.255711 0.571788 0.123358
H303  H     H_    0.615490 0.290491 0.521243 0.133881
H304  H     H_    0.636352 0.297931 0.587276 0.174302
H305  H     H_    0.209792 0.659461 0.412999 0.244261
H306  H     H_    0.303236 0.638303 0.410432 0.170141
H307  H     H_    0.262444 0.583958 0.423653 0.126872
H308  H     H_    0.296539 0.615270 0.475436 0.144065
H309  H     H_    0.208760 0.341298 0.586088 0.245233
H310  H     H_    0.265435 0.417795 0.550908 0.126916
H311  H     H_    0.310566 0.365903 0.539539 0.142074
H312  H     H_    0.584926 0.229291 0.091002 0.125624
H313  H     H_    0.287358 0.378785 0.603948 0.162903
H314  H     H_    0.727064 0.846789 0.414846 0.267585
H315  H     H_    0.637305 0.864276 0.418044 0.135056
H316  H     H_    0.630807 0.822474 0.472884 0.162274
H317  H     H_    0.645716 0.795587 0.410062 0.146013
H318  H     H_    0.519879 0.211447 0.107747 0.145454
H319  H     H_    0.192952 0.404574 0.337691 0.158562
H320  H     H_    0.573865 0.187250 0.144991 0.162317
H321  H     H_    0.412425 0.342360 0.784234 0.248728
H322  H     H_    0.410984 0.285683 0.861536 0.153191
H323  H     H_    0.418885 0.353320 0.875220 0.133391
H324  H     H_    0.474253 0.311276 0.876524 0.173314
H325  H     H_    0.587498 0.792189 0.339083 0.244332
H326  H     H_    0.582740 0.866407 0.278827 0.152736
H327  H     H_    0.576663 0.882908 0.346274 0.125693
H328  H     H_    0.519855 0.879561 0.306501 0.173250
H329  H     H_    0.418847 0.245971 0.146834 0.268204
H330  H     H_    0.870461 0.544814 0.725621 0.256461
H331  H     H_    0.416977 0.331880 0.112734 0.135372
H332  H     H_    0.464738 0.350710 0.159524 0.145185
H333  H     H_    0.400339 0.333396 0.180393 0.139254
H334  H     H_    0.584208 0.852376 0.746427 0.270996
H335  H     H_    0.571398 0.887537 0.662314 0.131148
H336  H     H_    0.517458 0.845556 0.652397 0.146654
H337  H     H_    0.581465 0.818667 0.656254 0.131121
H338  H     H_    0.411150 0.822821 0.315226 0.239283
H339  H     H_    0.416864 0.745006 0.371867 0.154727
H340  H     H_    0.421252 0.806296 0.404632 0.125453
H341  H     H_    0.901224 0.582261 0.805325 0.139601
H342  H     H_    0.479067 0.769879 0.391841 0.170731
H343  H     H_    0.588309 0.316687 0.820334 0.239829
H344  H     H_    0.574349 0.405331 0.808316 0.129845
H345  H     H_    0.514984 0.393039 0.774841 0.177046
H346  H     H_    0.575437 0.375944 0.744760 0.156537
H347  H     H_    0.860698 0.302190 0.546885 0.257279
H348  H     H_    0.908689 0.233577 0.585690 0.132317
H349  H     H_    0.892847 0.216811 0.519825 0.147489
H350  H     H_    0.856097 0.190292 0.572859 0.160880
H351  H     H_    0.288590 0.866114 0.456039 0.258066
H352  H     H_    0.883113 0.515984 0.814723 0.137756
H353  H     H_    0.212309 0.904803 0.419264 0.141162
H354  H     H_    0.200476 0.885793 0.485000 0.135724
H355  H     H_    0.177530 0.846551 0.431858 0.155931
H356  H     H_    0.289234 0.134292 0.544665 0.259219
H357  H     H_    0.213829 0.088390 0.560786 0.126671
H358  H     H_    0.200956 0.122557 0.502856 0.143328
H359  H     H_    0.176890 0.147500 0.563543 0.158310
H360  H     H_    0.779932 0.655505 0.412352 0.250534
H361  H     H_    0.860480 0.706282 0.413629 0.147248
H362  H     H_    0.870151 0.638290 0.424362 0.126132
H363  H     H_    0.840297 0.567448 0.834705 0.149007
H364  H     H_    0.870960 0.681806 0.478345 0.171568
H365  H     H_    0.245492 0.852568 0.581893 0.268639
H366  H     H_    0.330692 0.887447 0.582997 0.135752
H367  H     H_    0.349484 0.842918 0.532946 0.144912
H368  H     H_    0.335022 0.819596 0.597288 0.144086
H369  H     H_    0.850642 0.262128 0.415198 0.266807
H370  H     H_    0.877850 0.349171 0.424945 0.127112
H371  H     H_    0.836051 0.356730 0.479693 0.147285
H372  H     H_    0.808492 0.348572 0.416237 0.136682
H373  H     H_    0.811500 0.673714 0.588435 0.236414
H374  H     H_    0.150265 0.412237 0.738164 0.264013
H375  H     H_    0.726408 0.628624 0.580321 0.154005
H376  H     H_    0.782879 0.587998 0.576139 0.126132
H377  H     H_    0.749663 0.606600 0.518020 0.170047
H378  H     H_    0.255629 0.150183 0.414323 0.270439
H379  H     H_    0.341297 0.117123 0.421038 0.145096
H380  H     H_    0.353612 0.160394 0.474077 0.145768
H381  H     H_    0.344371 0.185537 0.409412 0.146292
H382  H     H_    0.627465 0.960070 0.272071 0.257414
H383  H     H_    0.622636 0.892191 0.195506 0.175608
H384  H     H_    0.662150 0.940000 0.164686 0.151528
N1    N     N_2   0.158934 0.444530 0.275267 -0.487509
N2    N     N_2   0.555324 0.265639 0.157089 -0.497153
N3    N     N_2   0.445174 0.329160 0.802545 -0.504524
N4    N     N_2   0.553327 0.808138 0.326528 -0.499760
N5    N     N_2   0.447381 0.271459 0.156867 -0.520619
N6    N     N_2   0.550689 0.843759 0.726961 -0.519250
N7    N     N_2   0.445323 0.806427 0.327373 -0.495728
N8    N     N_2   0.553130 0.327792 0.805426 -0.496754
N9    N     N_2   0.841880 0.268706 0.556483 -0.490533
N10   N     N_2   0.257841 0.843239 0.445630 -0.477726
N11   N     N_2   0.256854 0.156133 0.552418 -0.476740
N12   N     N_2   0.844701 0.554778 0.754289 -0.471928
N13   N     N_2   0.797635 0.666880 0.446096 -0.498491
N14   N     N_2   0.270713 0.842477 0.552954 -0.524379
N15   N     N_2   0.840635 0.281592 0.448435 -0.520290
N16   N     N_2   0.794032 0.664680 0.553798 -0.493358
N17   N     N_2   0.277094 0.159393 0.446379 -0.529793
N18   N     N_2   0.654702 0.946240 0.246502 -0.500246
N19   N     N_2   0.262463 0.055237 0.844873 -0.473437
N20   N     N_2   0.276148 0.944483 0.340477 -0.491188
N21   N     N_2   0.735592 0.055328 0.656940 -0.493841
N22   N     N_2   0.263183 0.946996 0.845758 -0.506481
N23   N     N_2   0.153342 0.448048 0.755073 -0.477507
N24   N     N_2   0.654573 0.054249 0.250471 -0.506791
N25   N     N_2   0.725723 0.947796 0.657504 -0.516982
N26   N     N_2   0.264073 0.052758 0.344696 -0.515241
N27   N     N_2   0.763872 0.054556 0.844240 -0.498870
N28   N     N_2   0.229386 0.945612 0.156724 -0.509553
N29   N     N_2   0.221090 0.052902 0.659672 -0.470714
N30   N     N_2   0.844347 0.944467 0.251777 -0.476348
N31   N     N_2   0.230954 0.054153 0.156605 -0.509660
N32   N     N_2   0.774865 0.946934 0.842356 -0.522428
N33   N     N_2   0.845419 0.052732 0.253319 -0.509793
N34   N     N_2   0.668697 0.555198 0.201873 -0.513254
N35   N     N_2   0.235028 0.946513 0.656363 -0.507260
N36   N     N_2   0.945802 0.747192 0.345480 -0.503527
N37   N     N_2   0.055374 0.155809 0.734047 -0.476143
N38   N     N_2   0.944307 0.658255 0.731680 -0.485219
N39   N     N_2   0.054727 0.343764 0.255319 -0.480836
N40   N     N_2   0.947161 0.155078 0.732823 -0.505667
N41   N     N_2   0.054184 0.745414 0.345540 -0.507157
N42   N     N_2   0.948079 0.342397 0.273473 -0.518305
N43   N     N_2   0.052334 0.654817 0.744998 -0.516300
N44   N     N_2   0.055197 0.156145 0.234816 -0.495791
N45   N     N_2   0.846193 0.447942 0.743809 -0.521771
N46   N     N_2   0.945447 0.844310 0.765900 -0.507434
N47   N     N_2   0.053048 0.338402 0.784936 -0.475983
N48   N     N_2   0.944674 0.751043 0.155644 -0.476312
N49   N     N_2   0.054050 0.844379 0.763850 -0.507941
N50   N     N_2   0.947057 0.156827 0.227960 -0.521420
N51   N     N_2   0.053122 0.749392 0.154564 -0.508658
N52   N     N_2   0.946787 0.342408 0.771510 -0.508493
N53   N     N_2   0.743444 0.654793 0.053170 -0.479937
N54   N     N_2   0.153883 0.243583 0.946755 -0.491978
N55   N     N_2   0.786995 0.163440 0.054952 -0.504873
N56   N     N_2   0.155046 0.553298 0.265780 -0.516436
N57   N     N_2   0.342008 0.729148 0.944607 -0.494040
N58   N     N_2   0.153980 0.244606 0.053502 -0.478824
N59   N     N_2   0.741944 0.655245 0.945833 -0.473549
N60   N     N_2   0.341635 0.723113 0.052896 -0.519214
N61   N     N_2   0.793726 0.165703 0.946070 -0.522526
N62   N     N_2   0.158055 0.773219 0.944837 -0.499599
N63   N     N_2   0.711535 0.337108 0.055496 -0.495951
N64   N     N_2   0.344415 0.250529 0.945512 -0.498096
N65   N     N_2   0.753027 0.844213 0.055850 -0.476203
N66   N     N_2   0.709430 0.336571 0.946167 -0.523770
N67   N     N_2   0.662266 0.446802 0.210718 -0.519056
N68   N     N_2   0.158483 0.777810 0.053365 -0.521405
N69   N     N_2   0.751171 0.845410 0.947114 -0.510371
N70   N     N_2   0.345015 0.247872 0.053520 -0.505329
N71   N     N_2   0.656167 0.446575 0.735685 -0.488490
N72   N     N_2   0.343440 0.554783 0.240895 -0.496700
N73   N     N_2   0.835913 0.444272 0.287752 -0.495605
N74   N     N_2   0.341601 0.552487 0.726013 -0.473069
N75   N     N_2   0.343068 0.447636 0.227816 -0.524423
N76   N     N_2   0.654749 0.553910 0.748127 -0.511340
N77   N     N_2   0.344564 0.446301 0.746908 -0.507463
N78   N     N_2   0.153804 0.552385 0.739631 -0.500587
N79   N     N_2   0.838365 0.552661 0.285929 -0.525366
N80   N     N_2   0.445305 0.231671 0.343107 -0.500781
N81   N     N_2   0.557476 0.660458 0.775127 -0.499279
N82   N     N_2   0.446736 0.694720 0.172574 -0.481528
N83   N     N_2   0.553688 0.165489 0.705786 -0.479179
N84   N     N_2   0.450087 0.654106 0.756382 -0.511933
N85   N     N_2   0.553954 0.234145 0.344353 -0.510396
N86   N     N_2   0.446428 0.167581 0.701674 -0.478979
N87   N     N_2   0.554005 0.695104 0.173118 -0.483353
N88   N     N_2   0.224756 0.658192 0.554539 -0.504293
N89   N     N_2   0.443267 0.843418 0.742217 -0.484732
N90   N     N_2   0.661701 0.218626 0.443444 -0.501212
N91   N     N_2   0.707332 0.833670 0.555508 -0.498106
N92   N     N_2   0.232426 0.343964 0.445508 -0.500979
N93   N     N_2   0.656793 0.227160 0.552297 -0.518405
N94   N     N_2   0.231832 0.655488 0.445924 -0.510884
N95   N     N_2   0.232785 0.344272 0.554534 -0.509827
N96   N     N_2   0.706798 0.834416 0.446645 -0.523970
O1    O     O_3   0.250000 0.250000 0.250000 -0.431856
O2    O     O_R   0.634200 0.719710 0.719710 -0.532472
O3    O     O_R   0.219710 0.365800 0.219710 -0.516361
O4    O     O_R   0.219710 0.634200 0.219710 -0.554517
O5    O     O_R   0.780290 0.365800 0.780290 -0.565742
O6    O     O_R   0.219710 0.365800 0.780290 -0.549268
O7    O     O_R   0.780290 0.634200 0.219710 -0.569521
O8    O     O_R   0.280290 0.280290 0.634200 -0.552793
O9    O     O_R   0.719710 0.719710 0.365800 -0.552619
O10   O     O_R   0.634200 0.280290 0.719710 -0.554962
O11   O     O_R   0.365800 0.719710 0.280290 -0.546859
O12   O     O_R   0.719710 0.280290 0.365800 -0.534232
O13   O     O_R   0.280290 0.719710 0.634200 -0.548123
O14   O     O_R   0.365800 0.719710 0.719710 -0.554699
O15   O     O_R   0.634200 0.280290 0.280290 -0.548585
O16   O     O_R   0.280290 0.719710 0.365800 -0.559061
O17   O     O_3   0.750000 0.750000 0.750000 -0.434106
O18   O     O_R   0.719710 0.280290 0.634200 -0.558876
O19   O     O_R   0.634200 0.719710 0.280290 -0.545681
O20   O     O_R   0.365800 0.280290 0.719710 -0.563186
O21   O     O_R   0.719710 0.719710 0.634200 -0.558526
O22   O     O_R   0.280290 0.280290 0.365800 -0.545737
O23   O     O_R   0.280290 0.365800 0.719710 -0.550690
O24   O     O_R   0.719710 0.634200 0.280290 -0.532042
O25   O     O_R   0.280290 0.634200 0.280290 -0.535419
O26   O     O_R   0.719710 0.365800 0.719710 -0.525462
O27   O     O_R   0.719710 0.634200 0.719710 -0.548750
O28   O     O_3   0.250000 0.250000 0.750000 -0.437141
O29   O     O_R   0.280290 0.365800 0.280290 -0.576357
O30   O     O_R   0.719710 0.365800 0.280290 -0.562129
O31   O     O_R   0.280290 0.634200 0.719710 -0.532551
O32   O     O_R   0.865800 0.780290 0.280290 -0.536501
O33   O     O_R   0.134200 0.219710 0.719710 -0.525103
O34   O     O_R   0.280290 0.780290 0.134200 -0.562538
O35   O     O_R   0.719710 0.219710 0.865800 -0.551631
O36   O     O_R   0.134200 0.780290 0.719710 -0.543964
O37   O     O_R   0.865800 0.219710 0.280290 -0.563812
O38   O     O_R   0.719710 0.780290 0.865800 -0.548337
O39   O     O_3   0.750000 0.750000 0.250000 -0.439477
O40   O     O_R   0.280290 0.219710 0.134200 -0.556117
O41   O     O_R   0.865800 0.219710 0.719710 -0.544541
O42   O     O_R   0.134200 0.780290 0.280290 -0.548025
O43   O     O_R   0.280290 0.219710 0.865800 -0.528061
O44   O     O_R   0.719710 0.780290 0.134200 -0.520754
O45   O     O_R   0.134200 0.219710 0.280290 -0.534108
O46   O     O_R   0.865800 0.780290 0.719710 -0.548565
O47   O     O_R   0.719710 0.219710 0.134200 -0.552739
O48   O     O_R   0.280290 0.780290 0.865800 -0.546278
O49   O     O_R   0.780290 0.719710 0.134200 -0.549159
O50   O     O_3   0.750000 0.250000 0.750000 -0.431060
O51   O     O_R   0.219710 0.280290 0.865800 -0.564309
O52   O     O_R   0.780290 0.865800 0.719710 -0.559152
O53   O     O_R   0.219710 0.134200 0.280290 -0.551266
O54   O     O_R   0.780290 0.280290 0.865800 -0.554762
O55   O     O_R   0.219710 0.719710 0.134200 -0.557730
O56   O     O_R   0.780290 0.134200 0.280290 -0.548390
O57   O     O_R   0.219710 0.865800 0.719710 -0.554244
O58   O     O_R   0.219710 0.280290 0.134200 -0.554434
O59   O     O_R   0.780290 0.719710 0.865800 -0.548962
O60   O     O_R   0.219710 0.134200 0.719710 -0.524165
O61   O     O_3   0.250000 0.750000 0.250000 -0.430843
O62   O     O_R   0.780290 0.865800 0.280290 -0.523463
O63   O     O_R   0.219710 0.719710 0.865800 -0.534977
O64   O     O_R   0.780290 0.280290 0.134200 -0.522416
O65   O     O_R   0.219710 0.865800 0.280290 -0.521262
O66   O     O_R   0.780290 0.134200 0.719710 -0.543986
O67   O     O_R   0.719710 0.865800 0.219710 -0.534311
O68   O     O_R   0.280290 0.134200 0.780290 -0.522290
O69   O     O_R   0.865800 0.280290 0.219710 -0.549859
O70   O     O_R   0.134200 0.719710 0.780290 -0.552662
O71   O     O_R   0.280290 0.134200 0.219710 -0.543633
O72   O     O_3   0.750000 0.250000 0.250000 -0.434769
O73   O     O_R   0.719710 0.865800 0.780290 -0.562078
O74   O     O_R   0.134200 0.719710 0.219710 -0.553137
O75   O     O_R   0.865800 0.280290 0.780290 -0.548820
O76   O     O_R   0.280290 0.865800 0.780290 -0.543381
O77   O     O_R   0.719710 0.134200 0.219710 -0.546799
O78   O     O_R   0.134200 0.280290 0.780290 -0.535067
O79   O     O_R   0.865800 0.719710 0.219710 -0.522809
O80   O     O_R   0.719710 0.134200 0.780290 -0.534718
O81   O     O_R   0.280290 0.865800 0.219710 -0.548108
O82   O     O_R   0.865800 0.719710 0.780290 -0.519216
O83   O     O_3   0.250000 0.750000 0.750000 -0.431869
O84   O     O_R   0.134200 0.280290 0.219710 -0.528562
O85   O     O_R   0.365800 0.780290 0.780290 -0.525346
O86   O     O_R   0.634200 0.219710 0.219710 -0.544185
O87   O     O_R   0.780290 0.780290 0.634200 -0.533462
O88   O     O_R   0.219710 0.219710 0.365800 -0.560387
O89   O     O_R   0.634200 0.780290 0.219710 -0.557580
O90   O     O_R   0.365800 0.219710 0.780290 -0.555406
O91   O     O_R   0.219710 0.780290 0.365800 -0.531503
O92   O     O_R   0.780290 0.219710 0.634200 -0.531703
O93   O     O_R   0.365800 0.219710 0.219710 -0.561412
O94   O     O_R   0.365800 0.280290 0.280290 -0.543499
O95   O     O_R   0.634200 0.780290 0.780290 -0.563314
O96   O     O_R   0.780290 0.219710 0.365800 -0.562543
O97   O     O_R   0.219710 0.780290 0.634200 -0.561066
O98   O     O_R   0.634200 0.219710 0.780290 -0.553670
O99   O     O_R   0.365800 0.780290 0.219710 -0.555615
O100  O     O_R   0.219710 0.219710 0.634200 -0.525657
O101  O     O_R   0.780290 0.780290 0.365800 -0.560452
O102  O     O_R   0.780290 0.365800 0.219710 -0.521998
O103  O     O_R   0.219710 0.634200 0.780290 -0.564022
O104  O     O_R   0.780290 0.634200 0.780290 -0.527720
Zn1   Zn    Zn3+2 0.206600 0.293400 0.206600 0.927511
Zn2   Zn    Zn3+2 0.706600 0.206600 0.206600 0.904099
Zn3   Zn    Zn3+2 0.293400 0.206600 0.793400 0.919205
Zn4   Zn    Zn3+2 0.706600 0.793400 0.206600 0.917636
Zn5   Zn    Zn3+2 0.293400 0.206600 0.206600 0.892812
Zn6   Zn    Zn3+2 0.706600 0.793400 0.793400 0.892460
Zn7   Zn    Zn3+2 0.293400 0.793400 0.206600 0.903948
Zn8   Zn    Zn3+2 0.706600 0.206600 0.793400 0.914173
Zn9   Zn    Zn3+2 0.793400 0.206600 0.706600 0.912756
Zn10  Zn    Zn3+2 0.206600 0.793400 0.293400 0.922754
Zn11  Zn    Zn3+2 0.206600 0.206600 0.706600 0.928559
Zn12  Zn    Zn3+2 0.793400 0.706600 0.793400 0.924747
Zn13  Zn    Zn3+2 0.793400 0.793400 0.293400 0.918554
Zn14  Zn    Zn3+2 0.206600 0.793400 0.706600 0.895821
Zn15  Zn    Zn3+2 0.793400 0.206600 0.293400 0.892684
Zn16  Zn    Zn3+2 0.793400 0.793400 0.706600 0.910834
Zn17  Zn    Zn3+2 0.206600 0.206600 0.293400 0.915908
Zn18  Zn    Zn3+2 0.706600 0.293400 0.706600 0.902218
Zn19  Zn    Zn3+2 0.293400 0.706600 0.293400 0.902663
Zn20  Zn    Zn3+2 0.706600 0.293400 0.293400 0.905212
Zn21  Zn    Zn3+2 0.293400 0.706600 0.706600 0.907590
Zn22  Zn    Zn3+2 0.293400 0.293400 0.293400 0.898240
Zn23  Zn    Zn3+2 0.206600 0.293400 0.793400 0.897942
Zn24  Zn    Zn3+2 0.706600 0.706600 0.706600 0.903905
Zn25  Zn    Zn3+2 0.293400 0.293400 0.706600 0.889389
Zn26  Zn    Zn3+2 0.706600 0.706600 0.293400 0.914822
Zn27  Zn    Zn3+2 0.793400 0.706600 0.206600 0.912744
Zn28  Zn    Zn3+2 0.793400 0.293400 0.793400 0.895756
Zn29  Zn    Zn3+2 0.206600 0.706600 0.206600 0.890396
Zn30  Zn    Zn3+2 0.793400 0.293400 0.206600 0.940631
Zn31  Zn    Zn3+2 0.206600 0.706600 0.793400 0.911196
Zn32  Zn    Zn3+2 0.293400 0.793400 0.793400 0.918430

loop_
_geom_bond_atom_site_label_1
_geom_bond_atom_site_label_2
_ccdc_geom_bond_type
O54   Zn28  S    
C60   C79   S    
C89   C285  A    
O69   Zn30  S    
H261  N83   S    
C41   N86   S    
C18   C21   A    
H211  N71   S    
C2    C65   S    
C188  H228  S    
C179  O78   A    
O61   Zn29  S    
C123  H348  S    
C157  O31   A    
C209  H311  S    
C288  N47   S    
C164  H130  S    
C169  N54   S    
C114  H224  S    
C132  H384  S    
O14   Zn21  S    
C180  H191  S    
C3    N48   S    
C213  O69   A    
C131  H380  S    
C82   C274  A    
C275  N33   S    
C238  N45   S    
C162  H122  S    
C116  H318  S    
C68   O88   A    
C67   C246  A    
O67   Zn4   S    
C234  O10   A    
C32   N77   S    
C203  H286  S    
C101  O4    A    
C80   C276  A    
C96   C214  S    
C170  H153  S    
C167  H143  S    
C5    C286  A    
C140  H33   S    
C37   C42   A    
C197  H262  S    
C187  H225  S    
C126  N11   S    
C52   C239  A    
O1    Zn5   S    
C283  N41   S    
C11   C15   A    
H226  N74   S    
C261  N19   S    
C126  H357  S    
C260  N18   S    
C34   N80   S    
C80   C264  A    
C81   C268  A    
C234  O98   A    
C56   C235  A    
C44   C70   A    
C46   O90   A    
C161  H116  S    
C195  H254  S    
C229  O60   A    
C84   C230  S    
O92   Zn9   S    
C279  N37   S    
C110  H157  S    
C93   C277  A    
H248  N80   S    
C28   N73   S    
C114  N78   S    
C192  H242  S    
C205  N91   S    
O19   Zn26  S    
O94   Zn22  S    
C217  O74   A    
C259  N17   S    
C156  N42   S    
C33   C59   A    
C158  N43   S    
C178  N64   S    
C245  O11   A    
O100  Zn11  S    
C85   C263  A    
C207  H303  S    
C219  O49   A    
C121  H342  S    
C111  H201  S    
C191  H238  S    
C199  H271  S    
C2    O86   A    
C222  O64   A    
C144  H51   S    
C185  N71   S    
C155  H94   S    
C111  H179  S    
C52   C101  S    
O33   Zn11  S    
O15   Zn20  S    
C114  H246  S    
C182  H199  S    
C81   C226  S    
C200  N86   S    
C194  H250  S    
C84   C272  A    
C147  H59   S    
H96   N42   S    
C137  N22   S    
C231  O65   A    
O45   Zn17  S    
C169  H147  S    
C20   N65   S    
C185  H214  S    
C281  C284  A    
C165  H134  S    
C146  O30   A    
O28   Zn11  S    
C65   C243  A    
O27   Zn24  S    
C247  N5    S    
C7    C88   A    
O12   Zn20  S    
C68   C72   S    
O99   Zn7   S    
C111  N67   S    
C105  H112  S    
O84   Zn1   S    
C143  N29   S    
C163  H126  S    
O17   Zn24  S    
C240  N67   S    
C95   C221  S    
H278  N87   S    
C273  N31   S    
C109  N45   S    
C90   O7    A    
C86   C270  A    
C12   C97   A    
C23   N69   S    
C137  H20   S    
C171  H156  S    
O18   Zn18  S    
C150  H71   S    
C178  H188  S    
H43   N29   S    
O30   Zn20  S    
C28   C33   A    
C134  H9    S    
C40   C65   A    
C249  N7    S    
O56   Zn15  S    
C105  N1    S    
C109  H90   S    
C127  H364  S    
C86   C231  S    
C50   C77   A    
C181  H195  S    
C266  N25   S    
C176  H177  S    
H52   N31   S    
C41   C69   A    
C4    C89   A    
C124  O27   A    
C116  N2    S    
H207  N70   S    
H314  N96   S    
H109  N46   S    
C212  O8    A    
C43   C71   A    
C59   C237  A    
C159  H108  S    
H330  N12   S    
C181  H197  S    
C88   C282  A    
C105  H223  S    
C116  H320  S    
C69   C244  A    
C153  N39   S    
O39   Zn26  S    
C101  O25   A    
C31   N76   S    
H79   N45   S    
C276  N35   S    
C267  O97   A    
H373  N16   S    
O51   Zn23  S    
C278  O14   A    
C207  N93   S    
C197  H264  S    
C140  N26   S    
C166  H139  S    
C91   C213  S    
C10   C16   A    
C45   N91   S    
C138  H23   S    
C228  O76   A    
C16   C98   A    
C159  N44   S    
C251  N9    S    
C254  N13   S    
C233  C239  A    
C120  H336  S    
C272  C275  A    
O71   Zn5   S    
C119  H331  S    
H329  N5    S    
C130  H377  S    
C136  H14   S    
C161  H118  S    
C216  O75   A    
C193  H245  S    
C173  N59   S    
C112  O95   A    
C242  C248  A    
C223  O9    A    
C160  H114  S    
C154  H91   S    
C280  N38   S    
H87   N40   S    
C27   N72   S    
H123  N49   S    
C63   C250  A    
C210  H316  S    
C156  H97   S    
O53   Zn17  S    
O26   Zn18  S    
C134  N20   S    
C15   N60   S    
C145  H55   S    
H137  N52   S    
C128  H366  S    
C86   C262  A    
C149  N35   S    
C44   C48   A    
C189  H232  S    
C115  H268  S    
C139  H29   S    
H168  N67   S    
H78   N38   S    
H141  N53   S    
C49   N94   S    
C192  H241  S    
C151  N37   S    
C70   C256  S    
O20   Zn25  S    
C58   C233  A    
C189  H233  S    
C1    C62   S    
O76   Zn32  S    
C136  H15   S    
C210  H317  S    
C117  N3    S    
C187  H222  S    
C21   N66   S    
C169  H149  S    
C272  N30   S    
C269  C274  A    
C208  H307  S    
C208  H306  S    
O77   Zn2   S    
C165  H136  S    
C253  N11   S    
C10   N55   S    
C123  H349  S    
C107  H24   S    
C202  H280  S    
C200  H276  S    
O28   Zn3   S    
C180  N65   S    
C154  N40   S    
H159  N58   S    
O28   Zn25  S    
C134  H10   S    
C278  O85   A    
C57   C73   S    
H56   N32   S    
O103  Zn31  S    
H100  N43   S    
C107  H13   S    
C133  N19   S    
C166  N52   S    
C173  H166  S    
C280  C285  A    
O72   Zn30  S    
C177  H182  S    
C178  H186  S    
C70   C257  A    
H61   N33   S    
C203  N88   S    
C164  N50   S    
C129  H372  S    
C141  H36   S    
C152  H82   S    
C141  N27   S    
C127  H362  S    
C31   C56   A    
O38   Zn6   S    
C76   C254  A    
C11   N57   S    
C152  H80   S    
C229  O68   A    
H194  N66   S    
C118  H327  S    
C202  H281  S    
C262  N20   S    
C199  H273  S    
C226  O53   A    
C5    N50   S    
C195  N81   S    
C248  N6    S    
C201  O35   A    
C35   O19   A    
C183  H205  S    
C159  H106  S    
H181  N63   S    
O80   Zn8   S    
C16   N61   S    
O86   Zn2   S    
H48   N30   S    
O83   Zn21  S    
C51   N96   S    
C142  H42   S    
C104  C222  S    
C174  H171  S    
C154  H88   S    
H360  N13   S    
C47   C50   A    
C158  H104  S    
O44   Zn4   S    
C277  N36   S    
C244  C250  A    
C271  C276  A    
C121  N7    S    
O64   Zn30  S    
C186  H218  S    
C4    C287  A    
C204  H289  S    
C223  O101  A    
H369  N15   S    
C91   C284  A    
C77   C253  A    
C51   C76   A    
C38   C41   A    
C122  H344  S    
C13   O16   A    
C121  H339  S    
C117  H323  S    
C192  H240  S    
C175  H174  S    
C191  N76   S    
O55   Zn29  S    
C155  H95   S    
H12   N21   S    
C143  H47   S    
C236  C241  A    
C193  H247  S    
C110  N56   S    
C285  N43   S    
C154  H89   S    
H243  N79   S    
H172  N61   S    
C205  H295  S    
C172  H162  S    
C215  O40   A    
C214  O38   A    
C20   C23   A    
C35   C67   S    
O34   Zn7   S    
O47   Zn2   S    
C230  O67   A    
C256  O96   A    
H163  N59   S    
C132  H3    S    
C3    C93   A    
C187  N73   S    
C133  H6    S    
C177  N63   S    
C122  H345  S    
C125  N10   S    
C128  H368  S    
C71   C255  A    
C129  H370  S    
H347  N9    S    
C226  O71   A    
C252  C255  A    
C139  H27   S    
C219  O44   A    
C25   C97   A    
C203  H285  S    
C227  O77   A    
C200  H277  S    
C9    C100  A    
C130  H376  S    
C42   C67   A    
C235  C238  A    
C163  H127  S    
C14   N59   S    
C83   C261  A    
C168  O79   A    
C110  H146  S    
C212  O100  A    
C180  H193  S    
C206  N92   S    
C286  N44   S    
O75   Zn28  S    
C153  H84   S    
C78   C227  S    
C197  N83   S    
C95   C280  A    
C224  O48   A    
C258  N16   S    
C106  N12   S    
C36   C39   A    
C19   N64   S    
H270  N85   S    
O41   Zn9   S    
O88   Zn17  S    
C99   C190  S    
C184  H209  S    
H374  N23   S    
C9    N54   S    
C198  N84   S    
H234  N76   S    
C183  H204  S    
H30   N26   S    
H216  N72   S    
H185  N64   S    
C131  H379  S    
C204  N90   S    
C106  H341  S    
C139  N25   S    
C209  N95   S    
C63   C234  S    
C267  O13   A    
C177  H184  S    
C106  H363  S    
C190  O34   A    
C205  H293  S    
C254  C258  A    
C198  H266  S    
C188  H229  S    
O89   Zn4   S    
C241  N78   S    
C221  O82   A    
C115  H290  S    
C138  H25   S    
C198  H269  S    
O87   Zn16  S    
C220  O84   A    
C263  N21   S    
C160  N46   S    
H212  N78   S    
C148  N33   S    
C126  H358  S    
C72   C259  A    
C237  C240  A    
O1    Zn1   S    
O61   Zn10  S    
C79   O6    A    
O4    Zn29  S    
C160  H111  S    
C236  N23   S    
C194  N80   S    
C61   C112  S    
C142  H40   S    
C174  H169  S    
O17   Zn12  S    
C132  N18   S    
O57   Zn14  S    
C158  H102  S    
C246  C249  A    
C57   O21   A    
C127  N13   S    
H154  N57   S    
C142  H41   S    
O66   Zn9   S    
C164  H131  S    
C150  H73   S    
O65   Zn10  S    
C141  H37   S    
C98   C201  S    
H1    N1    S    
O50   Zn18  S    
C206  H297  S    
O82   Zn12  S    
O32   Zn13  S    
C37   N82   S    
C246  N4    S    
C40   N85   S    
C191  H237  S    
C188  N74   S    
O73   Zn6   S    
C89   C211  S    
C24   O18   A    
O9    Zn26  S    
O3    Zn1   S    
H351  N10   S    
H115  N47   S    
C38   N83   S    
C155  H93   S    
C227  O56   A    
C143  H45   S    
C176  N62   S    
C204  H288  S    
C56   C124  S    
O83   Zn14  S    
C182  H200  S    
C144  H49   S    
C28   C55   A    
C217  O42   A    
C29   C32   A    
H150  N55   S    
C145  H53   S    
O22   Zn22  S    
C22   N68   S    
C29   C54   A    
C108  H57   S    
O74   Zn29  S    
C34   C62   A    
C185  H213  S    
C196  H259  S    
C85   C269  A    
O97   Zn14  S    
C218  O51   A    
C257  N15   S    
O62   Zn13  S    
C165  H133  S    
C108  H68   S    
C77   C212  S    
C105  H319  S    
C125  H354  S    
O5    Zn28  S    
C109  H113  S    
H167  N60   S    
O81   Zn7   S    
C93   C168  S    
C53   C113  S    
O59   Zn12  S    
H321  N3    S    
H70   N36   S    
C163  H125  S    
C170  H151  S    
H283  N88   S    
C216  O41   A    
O68   Zn3   S    
C55   C240  A    
O36   Zn14  S    
H365  N14   S    
C119  N5    S    
O83   Zn31  S    
C137  H19   S    
C107  H2    S    
C171  H155  S    
C113  O26   A    
C116  H312  S    
C213  O37   A    
C153  H86   S    
C3    C6    A    
O17   Zn6   S    
H198  N68   S    
C209  H313  S    
O25   Zn19  S    
O29   Zn22  S    
C145  N31   S    
C47   N92   S    
C270  C273  A    
O39   Zn4   S    
C208  N94   S    
C243  N2    S    
C149  H67   S    
O78   Zn23  S    
C188  H227  S    
C14   C96   A    
C230  O62   A    
C176  H178  S    
C180  H192  S    
C76   C223  S    
C131  N17   S    
C164  H129  S    
C42   N87   S    
C132  H383  S    
C149  H66   S    
C182  H202  S    
H265  N84   S    
C159  H107  S    
H17   N22   S    
C78   C265  A    
C148  H62   S    
O98   Zn8   S    
C195  H253  S    
C146  O102  A    
C162  H121  S    
C147  H58   S    
C73   C258  A    
C1    O94   A    
C55   C146  S    
C195  H255  S    
C6    N51   S    
C83   C229  S    
C46   O20   A    
C4    N49   S    
C107  N23   S    
C167  H144  S    
C211  O70   A    
O63   Zn31  S    
C218  O43   A    
C198  H267  S    
C54   C241  A    
C166  H140  S    
C239  N56   S    
C2    O15   A    
C92   C179  S    
C103  C224  S    
C261  C264  A    
C191  H236  S    
C253  C259  A    
O37   Zn15  S    
C175  H175  S    
C194  H251  S    
C149  H69   S    
C255  N14   S    
C94   C220  S    
C143  H44   S    
C18   C104  A    
O46   Zn16  S    
C82   C266  A    
C161  H117  S    
C172  H160  S    
O21   Zn24  S    
C83   C271  A    
C135  O3    A    
C150  N36   S    
O40   Zn5   S    
O50   Zn28  S    
C94   C281  A    
H292  N91   S    
C156  H98   S    
C167  H142  S    
O70   Zn31  S    
C58   C135  S    
C39   C66   A    
C34   C40   A    
C250  N8    S    
H252  N81   S    
C167  N53   S    
C108  N34   S    
C207  H304  S    
H189  N65   S    
C37   C64   A    
C282  N40   S    
C199  H272  S    
C189  H231  S    
C38   C63   A    
O11   Zn19  S    
C206  H299  S    
C140  H31   S    
C119  H333  S    
C71   C267  S    
C22   C99   A    
C162  N48   S    
H8    N20   S    
O48   Zn32  S    
H325  N4    S    
C165  N51   S    
C225  O73   A    
C225  O52   A    
O95   Zn6   S    
H124  N56   S    
C194  H249  S    
C74   C252  A    
C19   C100  A    
C136  H16   S    
C24   C75   S    
C115  N89   S    
C26   N71   S    
C187  H221  S    
H35   N34   S    
C169  H148  S    
C128  N14   S    
C17   C22   A    
O91   Zn10  S    
O61   Zn19  S    
C222  O47   A    
C185  H215  S    
O50   Zn9   S    
C130  N16   S    
H382  N18   S    
H34   N27   S    
C251  C257  A    
H26   N25   S    
C21   C98   A    
C182  N68   S    
C7    C288  A    
H4    N19   S    
C144  N30   S    
O72   Zn15  S    
C10   C104  A    
C148  H63   S    
C147  H60   S    
C179  O33   A    
C81   C273  A    
C134  H11   S    
C36   C61   A    
C17   C103  A    
C189  N75   S    
H119  N48   S    
C87   C283  A    
C47   C72   A    
C199  N85   S    
H309  N95   S    
C173  H165  S    
C64   C249  A    
C178  H187  S    
C237  N34   S    
C186  N72   S    
C13   C74   S    
C5    C91   A    
H287  N90   S    
C97   C215  S    
H378  N17   S    
C176  H180  S    
O8    Zn25  S    
C232  O66   A    
C49   C74   A    
C127  H361  S    
C260  C265  A    
H274  N86   S    
H256  N82   S    
H343  N8    S    
C57   O87   A    
C118  H328  S    
O101  Zn13  S    
C54   C157  S    
C111  H190  S    
O2    Zn24  S    
C263  C266  A    
C115  H279  S    
H230  N75   S    
C281  N39   S    
C270  N28   S    
C110  H135  S    
C221  O46   A    
O96   Zn15  S    
C160  H110  S    
C209  H310  S    
C60   C236  A    
C92   C288  A    
C268  N26   S    
C173  H164  S    
C197  H263  S    
C7    N52   S    
C163  N49   S    
C120  N6    S    
H338  N7    S    
C94   C286  A    
C202  N87   S    
O49   Zn27  S    
C118  N4    S    
C186  H219  S    
C17   N62   S    
O39   Zn27  S    
C208  H308  S    
H74   N37   S    
C33   N79   S    
C151  H76   S    
C35   O89   A    
C224  O63   A    
C90   O24   A    
O16   Zn19  S    
O6    Zn23  S    
C166  H138  S    
C120  H337  S    
C262  C268  A    
C138  H22   S    
C95   C287  A    
C117  H322  S    
C68   O22   A    
C45   C51   A    
C120  H335  S    
C106  H352  S    
C119  H332  S    
C252  N10   S    
C23   C96   A    
O23   Zn25  S    
C45   C73   A    
C279  C282  A    
C264  N22   S    
C125  H355  S    
C193  N79   S    
C46   C69   S    
C162  H120  S    
C50   N95   S    
O17   Zn16  S    
C170  H152  S    
C190  O55   A    
O104  Zn12  S    
H145  N54   S    
O42   Zn10  S    
C210  H315  S    
C203  H284  S    
C136  N21   S    
C131  H381  S    
H105  N44   S    
C196  H258  S    
C30   N75   S    
C122  H346  S    
C207  H302  S    
C138  N24   S    
C205  H294  S    
C43   N88   S    
C244  N3    S    
O7    Zn27  S    
O28   Zn23  S    
H92   N41   S    
C284  N42   S    
H65   N35   S    
C133  H7    S    
C256  O12   A    
O79   Zn27  S    
C26   C31   A    
C265  N24   S    
C114  H235  S    
H301  N2    S    
C27   C30   A    
C201  O54   A    
C48   C75   A    
C39   N84   S    
C124  O104  A    
C85   C232  S    
C78   C275  A    
H220  N73   S    
C20   C102  A    
C12   N58   S    
C9    C12   A    
C147  N32   S    
C168  O32   A    
C215  O58   A    
O1    Zn17  S    
H203  N69   S    
C175  N61   S    
C82   C225  S    
C25   N70   S    
C122  N8    S    
C141  H38   S    
C64   C245  S    
C128  H367  S    
C152  N38   S    
C150  H72   S    
O1    Zn22  S    
C157  O103  A    
C62   C247  A    
C1    O93   A    
C8    N53   S    
C202  H282  S    
C184  H210  S    
C43   C49   A    
C123  H350  S    
O43   Zn3   S    
C170  N55   S    
C66   C242  A    
C200  H275  S    
O39   Zn13  S    
C109  H101  S    
C184  H208  S    
C80   C228  S    
C6    C87   A    
C24   O92   A    
C196  N82   S    
C151  H75   S    
C193  H244  S    
C59   C90   S    
H257  N89   S    
C211  O36   A    
O102  Zn30  S    
C36   N81   S    
C269  N27   S    
O24   Zn26  S    
H21   N24   S    
C177  H183  S    
H39   N28   S    
C274  N32   S    
C231  O81   A    
O50   Zn8   S    
O83   Zn32  S    
C232  O80   A    
C152  H81   S    
C123  N9    S    
H296  N92   S    
C172  N58   S    
H300  N93   S    
C32   C60   A    
C210  N96   S    
C171  N57   S    
C155  N41   S    
C102  C219  S    
C118  H326  S    
C135  O29   A    
O52   Zn16  S    
C44   N90   S    
H356  N11   S    
O72   Zn2   S    
C126  H359  S    
C133  H5    S    
C235  N12   S    
C183  H206  S    
C181  H196  S    
H305  N94   S    
C181  N66   S    
C174  N60   S    
H132  N51   S    
H176  N62   S    
O61   Zn7   S    
C26   C53   A    
C174  H170  S    
C196  H260  S    
H128  N50   S    
C27   C52   A    
C158  H103  S    
C113  O5    A    
C183  N69   S    
C287  N46   S    
C245  O99   A    
C186  H217  S    
C8    C14   A    
C88   C216  S    
C242  N89   S    
C84   C260  A    
C161  N47   S    
O90   Zn3   S    
C206  H298  S    
C15   C99   A    
O60   Zn11  S    
C53   C238  A    
C121  H340  S    
C117  H324  S    
C112  O2    A    
C220  O45   A    
C142  N28   S    
C175  H173  S    
C204  H291  S    
C243  C247  A    
O10   Zn18  S    
O58   Zn1   S    
C75   C251  A    
C92   C279  A    
C144  H50   S    
C228  O57   A    
C271  N29   S    
C148  H64   S    
O13   Zn21  S    
C214  O59   A    
C18   N63   S    
C13   O91   A    
H334  N6    S    
C172  H161  S    
C8    C102  A    
C61   C248  A    
C151  H77   S    
C30   C58   A    
H239  N77   S    
C156  H99   S    
C66   C278  S    
C87   C217  S    
C277  C283  A    
C19   C25   A    
C108  H46   S    
C233  N1    S    
C29   N74   S    
C129  H371  S    
C137  H18   S    
O85   Zn32  S    
C100  C218  S    
C139  H28   S    
C125  H353  S    
C140  H32   S    
C79   O23   A    
C192  N77   S    
C130  H375  S    
O31   Zn21  S    
C129  N15   S    
C11   C103  A    
C48   N93   S    
H83   N39   S    
O93   Zn5   S    
O72   Zn20  S    
O35   Zn8   S    
C145  H54   S    
C171  H158  S    
C184  N70   S    
C153  H85   S    
